<?xml version="1.0" encoding="UTF-8"?>

<!-- generated on 2025-06-13 16:46:17 by Eclipse SUMO netedit Version 1.22.0
-->

<routes xmlns:xsi="http://www.w3.org/2001/XMLSchema-instance" xsi:noNamespaceSchemaLocation="http://sumo.dlr.de/xsd/routes_file.xsd">
    <!-- Vehicles, persons and containers (sorted by depart) -->
    <flow id="f_0" begin="0.00" from="Node4_1_EB" to="Node4_3_SB" end="10000.00" period="exp(0.03)">
        <param key="MaxDepartDelay" value="0"/>
    </flow>
    <flow id="f_1" begin="0.00" from="Node4_1_EB" to="Node4_2_EB" end="10000.00" period="exp(0.03)">
        <param key="MaxDepartDelay" value="0"/>
    </flow>
    <flow id="f_2" begin="0.00" from="Node4_3_N_B" to="Node4_2_EB" end="10000.00" period="exp(0.03)">
        <param key="MaxDepartDelay" value="0"/>
    </flow>
    <flow id="f_3" begin="0.00" from="Node4_3_N_B" to="Node4_1_WB" end="10000.00" period="exp(0.03)">
        <param key="MaxDepartDelay" value="0"/>
    </flow>
    <flow id="f_4" begin="0.00" from="Node4_2_WB" to="Node4_1_WB" end="10000.00" period="exp(0.03)">
        <param key="MaxDepartDelay" value="0"/>
    </flow>
    <flow id="f_5" begin="0.00" from="Node4_2_WB" to="Node4_3_SB" end="10000.00" period="exp(0.03)">
        <param key="MaxDepartDelay" value="0"/>
    </flow>
</routes>
