<?xml version="1.0" encoding="UTF-8"?>

<!-- generated on 2026-02-24 19:57:05 by Eclipse SUMO sumo Version 1.22.0
-->

<sumoConfiguration xmlns:xsi="http://www.w3.org/2001/XMLSchema-instance" xsi:noNamespaceSchemaLocation="http://sumo.dlr.de/xsd/sumoConfiguration.xsd">

    <input>
        <net-file value="SimpleTraci.net.xml"/>
        <route-files value="SimpleTraci.rou.xml"/>
        <additional-files value="SimpleTraci.add.xml"/>
    </input>

</sumoConfiguration>
