<?xml version="1.0" encoding="UTF-8"?>

<!-- generated on 2025-06-14 12:13:55 by Eclipse SUMO netedit Version 1.22.0
-->

<additional xmlns:xsi="http://www.w3.org/2001/XMLSchema-instance" xsi:noNamespaceSchemaLocation="http://sumo.dlr.de/xsd/additional_file.xsd">
    <!-- Detectors -->
    <laneAreaDetector id="Node5_1_SB_0" lane="Node5_1_SB_0" pos="2.90" length="43.00" period="300.00" file="e2_0.xml" friendlyPos="1" show="0"/>
    <laneAreaDetector id="Node5_1_SB_1" lane="Node5_1_SB_1" pos="2.95" length="43.00" period="300.00" file="e2_1.xml" friendlyPos="1" show="0"/>
    <laneAreaDetector id="Node5_1_SB_2" lane="Node5_1_SB_2" pos="2.92" length="44.00" period="300.00" file="e2_2.xml" friendlyPos="1" show="0"/>
    <laneAreaDetector id="Node5_2_WB_0" lane="Node5_2_WB_0" pos="2.88" length="65.00" period="300.00" file="e2_0.xml" friendlyPos="1" show="0"/>
    <laneAreaDetector id="Node5_2_WB_1" lane="Node5_2_WB_1" pos="2.85" length="65.00" period="300.00" file="e2_1.xml" friendlyPos="1" show="0"/>
    <laneAreaDetector id="Node5_2_WB_2" lane="Node5_2_WB_2" pos="2.81" length="65.00" period="300.00" file="e2_2.xml" friendlyPos="1" show="0"/>
    <laneAreaDetector id="Node5_3_NB_0" lane="Node5_3_NB_0" pos="2.03" length="50.00" period="300.00" file="e2_3.xml" friendlyPos="1" show="0"/>
    <laneAreaDetector id="Node5_3_NB_1" lane="Node5_3_NB_1" pos="2.06" length="50.00" period="300.00" file="e2_4.xml" friendlyPos="1" show="0"/>
    <laneAreaDetector id="Node5_3_NB_2" lane="Node5_3_NB_2" pos="2.15" length="50.00" period="300.00" file="e2_5.xml" friendlyPos="1" show="0"/>
    <laneAreaDetector id="Node5_4_EB_0" lane="Node5_4_EB_0" pos="3.25" length="59.00" period="300.00" file="e2_0.xml" friendlyPos="1" show="0"/>
    <laneAreaDetector id="Node5_4_EB_1" lane="Node5_4_EB_1" pos="3.19" length="59.00" period="300.00" file="e2_1.xml" friendlyPos="1" show="0"/>
    <laneAreaDetector id="Node5_4_EB_2" lane="Node5_4_EB_2" pos="3.07" length="59.00" period="300.00" file="e2_2.xml" friendlyPos="1" show="0"/>
</additional>
