<?xml version="1.0" encoding="UTF-8"?>

<!-- generated on 2025-06-14 12:21:09 by Eclipse SUMO netedit Version 1.22.0
-->

<routes xmlns:xsi="http://www.w3.org/2001/XMLSchema-instance" xsi:noNamespaceSchemaLocation="http://sumo.dlr.de/xsd/routes_file.xsd">
    <!-- Vehicles, persons and containers (sorted by depart) -->
    <flow id="f_0" begin="0.00" departLane="random" from="Node5_1_SB" to="Node5_4_WB" end="10000.00" period="exp(0.02)">
        <param key="maxDepartDelay" value="0"/>
    </flow>
    <flow id="f_1" begin="0.00" departLane="random" from="Node5_1_SB" to="Node5_3_SB" end="10000.00" period="exp(0.02)">
        <param key="maxDepartDelay" value="0"/>
    </flow>
    <flow id="f_10" begin="0.00" departLane="random" from="Node5_2_WB" to="Node5_4_WB" end="10000.00" period="exp(0.02)">
        <param key="maxDepartDelay" value="0"/>
    </flow>
    <flow id="f_11" begin="0.00" departLane="random" from="Node5_2_WB" to="Node5_3_SB" end="10000.00" period="exp(0.01)">
        <param key="maxDepartDelay" value="0"/>
    </flow>
    <flow id="f_2" begin="0.00" departLane="random" from="Node5_1_SB" to="Node5_2_EB" end="10000.00" period="exp(0.01)">
        <param key="maxDepartDelay" value="0"/>
    </flow>
    <flow id="f_3" begin="0.00" departLane="random" from="Node5_4_EB" to="Node5_3_SB" end="10000.00" period="exp(0.02)">
        <param key="maxDepartDelay" value="0"/>
    </flow>
    <flow id="f_4" begin="0.00" departLane="random" from="Node5_4_EB" to="Node5_2_EB" end="10000.00" period="exp(0.02)">
        <param key="maxDepartDelay" value="0"/>
    </flow>
    <flow id="f_5" begin="0.00" departLane="random" from="Node5_4_EB" to="Node5_1_NB" end="10000.00" period="exp(0.01)">
        <param key="maxDepartDelay" value="0"/>
    </flow>
    <flow id="f_6" begin="0.00" departLane="random" from="Node5_3_NB" to="Node5_2_EB" end="10000.00" period="exp(0.02)">
        <param key="maxDepartDelay" value="0"/>
    </flow>
    <flow id="f_7" begin="0.00" departLane="random" from="Node5_3_NB" to="Node5_1_NB" end="10000.00" period="exp(0.02)">
        <param key="maxDepartDelay" value="0"/>
    </flow>
    <flow id="f_8" begin="0.00" departLane="random" from="Node5_3_NB" to="Node5_4_WB" end="10000.00" period="exp(0.01)">
        <param key="maxDepartDelay" value="0"/>
    </flow>
    <flow id="f_9" begin="0.00" departLane="random" from="Node5_2_WB" to="Node5_1_NB" end="10000.00" period="exp(0.02)">
        <param key="maxDepartDelay" value="0"/>
    </flow>
</routes>
